186

C   28.10619 -20.00142 -15.91065 
C   27.51395 -20.99510 -16.93253 
C   28.52398 -21.27180 -18.05305 
C   28.99058 -19.94090 -18.67219 
C   29.56955 -19.05986 -17.54597 
C   30.06556 -17.71103 -18.09823 
O   27.15606 -22.23646 -16.30039 
O   27.90126 -22.12166 -19.02763 
O   30.00884 -20.18614 -19.65572 
O   28.56337 -18.80673 -16.55563 
H   27.32018 -19.74470 -15.19489 
H   26.59773 -20.57509 -17.36568 
H   29.37838 -21.84173 -17.66634 
H   28.13719 -19.42001 -19.12858 
H   30.41085 -19.57379 -17.07188 
C   31.58020 -20.61868 -12.22639 
C   30.78334 -21.91985 -12.25718 
C   29.97260 -21.94771 -13.54106 
C   29.18323 -20.65579 -13.82668 
C   29.80590 -19.35253 -13.24285 
C   28.73166 -18.36436 -12.74279 
O   31.67134 -23.05145 -12.25164 
O   29.08428 -23.07984 -13.50688 
O   29.21029 -20.62310 -15.26872 
O   30.67717 -19.52752 -12.10636 
O   27.90641 -17.87067 -13.78105 
H   32.23372 -20.59991 -11.34771 
H   30.13025 -22.00072 -11.38054 
H   30.65327 -22.17005 -14.37505 
H   28.15123 -20.79117 -13.47922 
H   30.37769 -18.84864 -14.03335 
H   28.10059 -18.84314 -11.98521 
H   29.21566 -17.50784 -12.25879 
C   36.12909 -20.00172 -14.88145 
C   35.73051 -21.44836 -14.58055 
C   34.22528 -21.54297 -14.33939 
C   33.74261 -20.50294 -13.30886 
C   34.30256 -19.10721 -13.65178 
C   33.97630 -18.04968 -12.58546 
O   36.11048 -22.30657 -15.67179 
O   33.94686 -22.88482 -13.90697 
O   32.32110 -20.45624 -13.43074 
O   35.72335 -19.13575 -13.82493 
O   32.68547 -17.48284 -12.79370 
H   37.22252 -19.96229 -14.93922 
H   36.26348 -21.80165 -13.68914 
H   33.68003 -21.42347 -15.28433 
H   34.06516 -20.82484 -12.31081 
H   33.83273 -18.76571 -14.58289 
H   34.03829 -18.45654 -11.57031 
H   34.69744 -17.22689 -12.64254 
C   37.10331 -17.68775 -19.49424 
C   38.00719 -18.76626 -18.86236 
C   37.17847 -19.63413 -17.90544 
C   36.43247 -18.75391 -16.88579 
C   35.62056 -17.68013 -17.62890 
C   34.84440 -16.76983 -16.64940 
O   38.59937 -19.61822 -19.85802 
O   38.05688 -20.56259 -17.25158 
O   35.53361 -19.57185 -16.12263 
O   36.50249 -16.89534 -18.44964 
H   37.69595 -17.02341 -20.13023 
H   38.82632 -18.28784 -18.31148 
H   36.46957 -20.25159 -18.47194 
H   37.15856 -18.25417 -16.22907 
H   34.89789 -18.14773 -18.29410 
C   34.03395 -19.15951 -23.43332 
C   35.25024 -20.07876 -23.33301 
C   35.94153 -19.84559 -21.99652 
C   36.18287 -18.36093 -21.65882 
C   35.11226 -17.39246 -22.23099 
C   35.68653 -15.98894 -22.49443 
O   34.84956 -21.45958 -23.41068 
O   37.17959 -20.58060 -22.00837 
O   36.05980 -18.32215 -20.22457 
O   34.48886 -17.80836 -23.46150 
O   36.17269 -15.37804 -21.31035 
H   33.50192 -19.35657 -24.36988 
H   35.94420 -19.88937 -24.16066 
H   35.35063 -20.32261 -21.20273 
H   37.19229 -18.07373 -21.97775 
H   34.32502 -17.27027 -21.47495 
H   36.50002 -16.03968 -23.22655 
H   34.90841 -15.34562 -22.92115 
C   29.46180 -20.33964 -20.98070 
C   30.17777 -21.46518 -21.73054 
C   31.64982 -21.10904 -21.92681 
C   31.83000 -19.71514 -22.55914 
C   30.91777 -18.66980 -21.87708 
C   30.84149 -17.34852 -22.66270 
O   30.06071 -22.70216 -21.00405 
O   32.23294 -22.12755 -22.75638 
O   33.18692 -19.33788 -22.30261 
O   29.57004 -19.12036 -21.70595 
O   32.00888 -16.55547 -22.51226 
H   28.39720 -20.59294 -20.93272 
H   29.70619 -21.61809 -22.70933 
H   32.18242 -21.17071 -20.96921 
H   31.61097 -19.77298 -23.63221 
H   31.34760 -18.43470 -20.89673 
H   30.65417 -17.52307 -23.72792 
H   30.00041 -16.75075 -22.29339 
C   31.30670 -15.87726 -16.84761 
C   32.58207 -15.64662 -16.46029 
N   31.25402 -17.14539 -17.41359 
N   33.34948 -16.77179 -16.77410 
C   32.49578 -17.68899 -17.30160 
N   32.81122 -18.94107 -17.65022 
H   33.66037 -19.37272 -17.30255 
H   35.18428 -15.74111 -16.81645 
H   35.06788 -17.01081 -15.60616 
H   30.35507 -17.78601 -19.14620 
H   33.09172 -22.89076 -13.42216 
H   32.17871 -19.51541 -18.18984 
C   33.14910 -14.43986 -15.79593 
H   32.37210 -13.78496 -15.39302 
H   33.74376 -13.85829 -16.50711 
H   33.78958 -14.72804 -14.95644 
C   30.12033 -14.98401 -16.74103 
H   29.33535 -15.46392 -16.14811 
H   29.72186 -14.75659 -17.73480 
H   30.35731 -14.03009 -16.26305 
C   26.80681 -23.03205 -17.29270 
H   26.21289 -23.77606 -16.70167 
H   27.66747 -23.61808 -17.70246 
H   26.15801 -22.63250 -18.11227 
C   28.86513 -22.64486 -19.76033 
H   28.54297 -22.36198 -20.79372 
H   28.97535 -23.75159 -19.76971 
H   29.86180 -22.20173 -19.50690 
C   30.87660 -24.09754 -12.36876 
H   29.89815 -24.13276 -11.83844 
H   31.56944 -24.81065 -11.88824 
H   30.74840 -24.34297 -13.44854 
C   28.36755 -23.02921 -14.61294 
H   28.96914 -22.89470 -15.54856 
H   27.82601 -24.00698 -14.66950 
H   27.57081 -22.24864 -14.52249 
C   27.05578 -17.02565 -13.23151 
H   27.46119 -16.26604 -12.53186 
H   26.20801 -17.53334 -12.71027 
H   26.68065 -16.51345 -14.15403 
C   35.57258 -23.47343 -15.37393 
H   35.54670 -23.85857 -14.34406 
H   36.31307 -24.02461 -15.96479 
H   34.58393 -23.55247 -15.83602 
C   28.99445 -16.76773 -18.05716 
H   28.36865 -16.13571 -17.41064 
H   29.50950 -16.13522 -18.79363 
H   28.34984 -17.54178 -18.49964 
C   31.80167 -18.30816 -12.26705 
H   31.65651 -18.95860 -13.16646 
H   30.91191 -17.64377 -12.13084 
H   31.90349 -18.93348 -11.34558 
C   39.29183 -20.50168 -19.16547 
H   38.60821 -21.34913 -19.04218 
H   39.78044 -20.28649 -18.19865 
H   40.03431 -20.71971 -19.94262 
C   37.30633 -21.53419 -16.76961 
H   36.25744 -21.14614 -16.75535 
H   37.64722 -21.82592 -15.74951 
H   37.28714 -22.45652 -17.39972 
C   35.96448 -22.13372 -23.20545 
H   36.82817 -21.74001 -23.80085 
H   35.59327 -23.05253 -23.71951 
H   36.26007 -22.33403 -22.14862 
C   37.88709 -20.17707 -20.97095 
H   37.22648 -20.19487 -20.09892 
H   38.73282 -20.84561 -20.77188 
H   38.21766 -19.15027 -21.15319 
C   36.49337 -14.13698 -21.62110 
H   37.14448 -13.95665 -22.50973 
H   37.07830 -13.79962 -20.73235 
H   35.54169 -13.57430 -21.71815 
C   30.83903 -23.54065 -21.66040 
H   30.34912 -24.43875 -21.23847 
H   31.88173 -23.53363 -21.30956 
H   30.78612 -23.60272 -22.76024 
C   33.49368 -21.80876 -22.97665 
H   34.10563 -22.72054 -22.76255 
H   33.53146 -21.55393 -24.06230 
H   33.91181 -20.92292 -22.43688 
C   32.93599 -17.05483 -23.30645 
H   33.02207 -17.56937 -24.29514 
H   33.13159 -17.79427 -22.49129 
H   33.70333 -16.24578 -23.19921 
