216

H  -31.74829 -29.68573 -13.54353 
C  -21.42349 -27.01455  -9.54304 
C  -21.78083 -27.75641  -8.25320 
C  -23.29186 -27.97587  -8.19282 
C  -24.08640 -26.67633  -8.42731 
C  -23.50407 -25.85534  -9.60722 
C  -24.04367 -24.41418  -9.64492 
O  -21.11041 -29.02995  -8.19646 
O  -23.59247 -28.53482  -6.89984 
O  -25.42056 -27.07987  -8.75410 
O  -22.06819 -25.74338  -9.53908 
O  -25.40413 -24.35183 -10.03763 
H  -20.34007 -26.85560  -9.57202 
H  -21.45406 -27.17670  -7.38122 
H  -23.58767 -28.74487  -8.91830 
H  -24.05741 -26.06765  -7.51482 
H  -23.79220 -26.32835 -10.55578 
H  -23.93061 -23.93457  -8.66641 
H  -23.46227 -23.82186 -10.36116 
C  -20.83721 -29.03633 -14.42079 
C  -20.11577 -29.75668 -13.27561 
C  -20.81622 -29.44140 -11.95800 
C  -20.95040 -27.92425 -11.74568 
C  -21.54261 -27.24747 -12.99785 
C  -21.46201 -25.71495 -12.91188 
O  -20.09151 -31.17922 -13.49986 
O  -21.86239 -27.78805 -10.65354 
O  -20.84768 -27.63036 -14.19854 
O  -22.47534 -25.12851 -13.73258 
H  -20.26710 -29.21710 -15.33912 
H  -19.07222 -29.42320 -13.22179 
H  -19.96208 -27.50879 -11.51184 
H  -22.59881 -27.52207 -13.09679 
H  -21.61430 -25.34712 -11.89897 
H  -20.49545 -25.35235 -13.27768 
C  -24.20142 -30.81185 -18.03929 
C  -22.75909 -31.31336 -17.82120 
C  -22.31155 -31.13034 -16.36774 
C  -22.58214 -29.68243 -15.90747 
C  -24.09758 -29.45338 -16.06733 
C  -24.56653 -28.10492 -15.50501 
O  -22.61373 -32.69877 -18.18882 
O  -20.91899 -31.47893 -16.28301 
O  -22.17529 -29.53611 -14.54618 
O  -24.40622 -29.52022 -17.46942 
H  -24.36098 -30.72355 -19.11856 
H  -22.08331 -30.73970 -18.46848 
H  -22.83167 -31.84731 -15.71941 
H  -22.04031 -28.97354 -16.54894 
H  -24.60857 -30.24080 -15.50616 
C  -28.38348 -33.98957 -18.26535 
C  -27.06772 -34.77588 -18.29487 
C  -25.94859 -33.89641 -17.74178 
C  -25.88203 -32.50771 -18.40912 
C  -27.28837 -31.90362 -18.66441 
C  -27.30211 -30.78475 -19.72092 
O  -27.16052 -35.97788 -17.51208 
O  -24.70357 -34.60537 -17.91687 
O  -25.14852 -31.70510 -17.46175 
O  -28.24185 -32.87513 -19.13503 
O  -26.52481 -29.64979 -19.39696 
H  -29.19411 -34.63051 -18.62914 
H  -26.82938 -35.07770 -19.32207 
H  -26.05948 -33.79143 -16.65470 
H  -25.32850 -32.61194 -19.35161 
H  -27.66096 -31.46307 -17.73497 
H  -26.94844 -31.17496 -20.68216 
H  -28.33163 -30.44948 -19.89243 
C  -31.45072 -31.94963 -14.46762 
C  -31.18041 -33.44053 -14.25310 
C  -29.93208 -33.82558 -15.03013 
C  -30.01013 -33.43660 -16.51984 
C  -30.54596 -31.99489 -16.69566 
C  -31.04306 -31.70301 -18.12080 
O  -30.99809 -33.74110 -12.85676 
O  -29.73242 -35.24794 -14.90405 
O  -28.64282 -33.56932 -16.93310 
O  -31.68018 -31.71237 -15.84889 
O  -31.17576 -30.28929 -18.29632 
H  -32.37255 -31.69231 -13.93402 
H  -32.03251 -34.03584 -14.60304 
H  -29.04868 -33.37390 -14.55904 
H  -30.64479 -34.16365 -17.04176 
H  -29.75379 -31.27759 -16.46231 
H  -30.37081 -32.06123 -18.89416 
H  -32.03029 -32.14862 -18.28367 
C  -30.27935 -27.99403 -11.18649 
C  -31.17405 -29.21000 -10.87518 
C  -30.79089 -30.41850 -11.73070 
C  -30.75585 -30.02957 -13.22065 
C  -29.75358 -28.86512 -13.36860 
O  -31.12053 -29.59322  -9.48861 
O  -31.75300 -31.45374 -11.45967 
O  -30.34702 -31.16307 -13.99633 
O  -30.23260 -27.74337 -12.59532 
H  -30.73213 -27.11415 -10.71910 
H  -32.21741 -28.94496 -11.08987 
H  -29.82185 -30.82189 -11.41011 
C  -26.40650 -26.86191  -7.75119 
C  -27.13933 -28.16917  -7.43447 
C  -27.82503 -28.69917  -8.69150 
C  -28.69542 -27.63444  -9.39306 
C  -27.94598 -26.27951  -9.47672 
C  -28.84586 -25.09824  -9.87535 
O  -26.24030 -29.17177  -6.92278 
O  -28.60843 -29.84449  -8.29064 
O  -28.95215 -28.17495 -10.70247 
O  -27.36507 -25.91032  -8.20853 
O  -29.33437 -25.15481 -11.20497 
H  -25.96000 -26.47661  -6.82811 
H  -27.89272 -27.99226  -6.65672 
H  -27.07892 -29.09777  -9.39050 
H  -29.62586 -27.52050  -8.82179 
H  -27.16350 -26.35789 -10.24205 
H  -29.70406 -25.02878  -9.19745 
H  -28.29554 -24.15697  -9.76517 
C  -27.85084 -26.60814 -14.98629 
C  -26.45719 -26.53734 -15.29878 
N  -28.25121 -27.94465 -15.10402 
N  -26.00055 -27.84180 -15.63934 
C  -27.11312 -28.71820 -15.45887 
H  -24.00694 -27.32262 -16.03180 
H  -24.30996 -28.04776 -14.44239 
C  -28.55694 -25.48450 -14.62201 
C  -25.77847 -25.33442 -15.23974 
C  -29.59805 -28.41787 -14.83750 
H  -28.76990 -29.17911 -12.99385 
H  -30.33771 -27.64679 -15.08392 
H  -29.79719 -29.24550 -15.52174 
O  -20.05690 -30.02941 -10.88375 
H  -21.79804 -29.93072 -11.92190 
N  -27.15172 -30.05030 -15.59952 
H  -27.98915 -30.55928 -15.35296 
C  -26.49930 -24.19392 -14.87438 
C  -27.87084 -24.26594 -14.56859 
H  -25.99134 -23.23295 -14.82883 
H  -24.72366 -25.25974 -15.47327 
H  -28.40634 -23.36354 -14.28503 
H  -29.61067 -25.52853 -14.36934 
H  -26.38262 -30.57043 -16.00100 
C  -21.67215 -29.64478  -7.17369 
H  -21.72816 -28.96682  -6.28835 
H  -20.91584 -30.45054  -6.99180 
H  -22.67045 -30.09745  -7.39553 
C  -24.85594 -28.91165  -6.93564 
H  -25.29599 -28.97669  -7.94722 
H  -25.36186 -28.08101  -6.38173 
H  -24.96600 -29.87574  -6.37800 
C  -25.76928 -23.08521  -9.99343 
H  -26.51910 -23.07925 -10.79866 
H  -24.95699 -22.35441 -10.15855 
H  -26.26595 -22.81873  -9.02694 
C  -19.74090 -31.68642 -12.33391 
H  -19.56322 -32.70567 -12.76017 
H  -20.67398 -31.69054 -11.71583 
H  -18.87002 -31.32440 -11.74351 
C  -22.49275 -23.83927 -13.45478 
H  -21.60168 -23.42169 -12.95985 
H  -23.40474 -23.70106 -12.83076 
H  -22.61403 -23.35084 -14.44801 
C  -21.37893 -32.99801 -17.83475 
H  -20.59869 -32.25384 -18.02722 
H  -21.23800 -33.84556 -18.52256 
H  -21.34382 -33.38664 -16.81315 
C  -20.63339 -31.57635 -14.99904 
H  -21.52453 -31.36932 -14.37348 
H  -20.06665 -32.43243 -14.58884 
H  -19.92154 -30.71368 -15.02716 
C  -25.91274 -36.38816 -17.39230 
H  -25.33095 -36.42406 -18.32236 
H  -26.18818 -37.41228 -17.09001 
H  -25.32569 -35.93290 -16.58777 
C  -23.73789 -33.71013 -17.84180 
H  -22.78872 -34.20600 -17.53355 
H  -23.90761 -32.85844 -17.15232 
H  -23.68565 -33.33371 -18.88443 
C  -26.81183 -29.26708 -18.16782 
H  -26.22838 -28.32644 -18.02727 
H  -27.83508 -29.18704 -17.75288 
H  -26.30334 -30.10014 -17.66914 
C  -30.48887 -34.95777 -12.85240 
H  -31.00602 -35.72698 -13.47987 
H  -30.58245 -35.26579 -11.78500 
H  -29.39909 -34.92782 -13.10750 
C  -28.67443 -35.52764 -15.64029 
H  -28.89961 -35.59600 -16.71284 
H  -28.52215 -36.53973 -15.24645 
H  -27.74806 -34.94911 -15.47142 
C  -31.65928 -30.08825 -19.50686 
H  -31.11379 -30.54143 -20.36035 
H  -31.63651 -28.98797 -19.60437 
H  -32.71138 -30.41106 -19.57302 
C  -31.84772 -30.69217  -9.43271 
H  -32.81984 -30.69224  -9.93721 
H  -32.02723 -30.61507  -8.34987 
H  -31.35546 -31.64920  -9.62641 
C  -31.25176 -32.57436 -11.94196 
H  -30.83919 -32.26860 -12.93009 
H  -32.20682 -33.13293 -12.04854 
H  -30.52404 -33.27529 -11.46509 
C  -26.94849 -30.28334  -6.97279 
H  -27.00361 -30.64336  -8.02067 
H  -26.52601 -31.03256  -6.28108 
H  -27.96273 -30.03273  -6.62298 
C  -29.70314 -29.84132  -9.02632 
H  -30.24934 -30.75492  -8.68033 
H  -29.79753 -29.75540 -10.12790 
H  -30.15422 -28.97634  -8.49153 
C  -28.35339 -25.56424 -11.98578 
H  -28.65058 -24.77381 -12.68988 
H  -28.55222 -26.56312 -12.42332 
H  -27.25393 -25.46080 -11.84081 
C  -20.66286 -29.69114  -9.76214 
H  -20.03584 -28.83415  -9.43394 
H  -20.52120 -30.53844  -9.06667 
H  -21.72994 -29.35258  -9.80780 
